Version 4
SHEET 1 880 792
WIRE -768 -112 -768 -192
WIRE -128 -96 -128 -144
WIRE -32 -96 -32 -144
WIRE 384 -80 384 -128
WIRE -2432 -16 -2432 -48
WIRE -1872 -16 -2432 -16
WIRE -768 0 -768 -32
WIRE -128 0 -128 -16
WIRE -32 0 -32 -16
WIRE -2432 48 -2432 -16
WIRE 384 96 384 0
WIRE -1872 128 -1872 -16
WIRE -1872 128 -1920 128
WIRE 112 144 112 112
WIRE 80 160 0 160
WIRE 192 176 144 176
WIRE 336 176 272 176
WIRE -2608 192 -2656 192
WIRE -2544 192 -2608 192
WIRE -2432 192 -2432 112
WIRE -2432 192 -2480 192
WIRE -2352 192 -2368 192
WIRE -2176 192 -2352 192
WIRE -272 192 -352 192
WIRE -96 192 -192 192
WIRE 80 192 -96 192
WIRE -2608 224 -2608 192
WIRE 112 240 112 208
WIRE -2176 256 -2240 256
WIRE -2240 272 -2240 256
WIRE -2608 304 -2608 288
WIRE -2352 320 -2352 192
WIRE -2336 320 -2352 320
WIRE -2176 320 -2272 320
WIRE -1792 320 -1920 320
WIRE -1664 320 -1792 320
WIRE -96 320 -96 192
WIRE 0 320 0 160
WIRE 192 320 0 320
WIRE 384 320 384 192
WIRE 384 320 272 320
WIRE -1792 352 -1792 320
WIRE 384 400 384 320
WIRE -1792 448 -1792 416
WIRE 384 512 384 480
WIRE -96 528 -96 400
FLAG 112 240 0
FLAG -128 0 0
FLAG -128 -144 Vsupply
FLAG 112 112 Vsupply
FLAG -32 0 0
FLAG -352 192 Vcontrol
FLAG -96 528 0
FLAG -2432 -48 Vsupply
FLAG -1792 448 0
FLAG -2240 272 0
FLAG -2656 192 Vboost
FLAG -2608 304 0
FLAG -1664 320 Vinvert
FLAG 384 512 0
FLAG -768 -192 Vcontrol
FLAG -768 0 0
FLAG 384 -128 Vsupply
SYMBOL Opamps\\UniversalOpamp2 112 176 R0
SYMATTR InstName U1
SYMBOL voltage -128 -112 R0
WINDOW 123 0 0 Left 0
WINDOW 39 0 0 Left 0
SYMATTR InstName V1
SYMATTR Value 9
SYMBOL voltage -32 -112 R0
WINDOW 123 0 0 Left 0
WINDOW 39 0 0 Left 0
SYMATTR InstName V2
SYMATTR Value 5
SYMBOL res 288 304 R90
WINDOW 0 0 56 VBottom 2
WINDOW 3 32 56 VTop 2
SYMATTR InstName R1
SYMATTR Value 10k
SYMBOL res 368 384 R0
SYMATTR InstName R2
SYMATTR Value 2
SYMBOL res 368 -96 R0
SYMATTR InstName R3
SYMATTR Value 1k
SYMBOL nmos 336 96 R0
SYMATTR InstName M1
SYMBOL res 288 160 R90
WINDOW 0 0 56 VBottom 2
WINDOW 3 32 56 VTop 2
SYMATTR InstName R4
SYMATTR Value 10k
SYMBOL res -112 304 R0
SYMATTR InstName R5
SYMATTR Value 100
SYMBOL res -176 176 R90
WINDOW 0 0 56 VBottom 2
WINDOW 3 32 56 VTop 2
SYMATTR InstName R6
SYMATTR Value 100k
SYMBOL PowerProducts\\LT1054 -2048 224 R0
SYMATTR InstName U3
SYMBOL diode -2448 48 R0
SYMATTR InstName D1
SYMATTR Value 1N4007
SYMBOL diode -2480 176 R90
WINDOW 0 0 32 VBottom 2
WINDOW 3 32 32 VTop 2
SYMATTR InstName D2
SYMATTR Value 1N4007
SYMBOL cap -2368 176 R90
WINDOW 0 0 32 VBottom 2
WINDOW 3 32 32 VTop 2
SYMATTR InstName C1
SYMATTR Value 1µ
SYMBOL cap -2272 304 R90
WINDOW 0 0 32 VBottom 2
WINDOW 3 32 32 VTop 2
SYMATTR InstName C2
SYMATTR Value 1µ
SYMBOL cap -1776 416 R180
WINDOW 0 24 56 Left 2
WINDOW 3 24 8 Left 2
SYMATTR InstName C3
SYMATTR Value 1µ
SYMBOL cap -2592 288 R180
WINDOW 0 24 56 Left 2
WINDOW 3 24 8 Left 2
SYMATTR InstName C4
SYMATTR Value 1µ
SYMBOL voltage -768 -128 R0
WINDOW 123 0 0 Left 0
WINDOW 39 0 0 Left 0
SYMATTR InstName V3
SYMATTR Value PULSE(0 5 20m 0 0 20m 40m 20)
TEXT -472 752 Left 2 !;dc V2 0 5 0.1
TEXT -472 664 Left 2 !step param R3 list 0R 1R 10R 100R 1K 10k 100k 1000k 10000k
TEXT -472 688 Left 2 !;op
TEXT -2752 776 Left 2 !.tran 0 1 0 0.1 startup
