Version 4
SHEET 1 880 680
WIRE -128 -96 -128 -144
WIRE -32 -96 -32 -144
WIRE 384 -80 384 -128
WIRE -128 0 -128 -16
WIRE -32 0 -32 -16
WIRE 384 96 384 0
WIRE 112 144 112 112
WIRE 80 160 0 160
WIRE 192 176 144 176
WIRE 336 176 272 176
WIRE -272 192 -352 192
WIRE -96 192 -192 192
WIRE 80 192 -96 192
WIRE 112 240 112 208
WIRE -96 320 -96 192
WIRE 0 320 0 160
WIRE 192 320 0 320
WIRE 384 320 384 192
WIRE 384 320 272 320
WIRE 384 400 384 320
WIRE -96 496 -96 400
WIRE 384 496 384 480
WIRE 384 496 -96 496
WIRE 384 512 384 496
FLAG 112 240 0
FLAG -128 0 0
FLAG -128 -144 Vsupply
FLAG 112 112 Vsupply
FLAG -32 -144 Vcontrol
FLAG -32 0 0
FLAG -352 192 Vcontrol
FLAG 384 -128 Vsupply
FLAG 384 512 0
SYMBOL Opamps\\UniversalOpamp2 112 176 R0
SYMATTR InstName U1
SYMBOL voltage -128 -112 R0
WINDOW 123 0 0 Left 0
WINDOW 39 0 0 Left 0
SYMATTR InstName V1
SYMATTR Value 27
SYMBOL voltage -32 -112 R0
WINDOW 123 0 0 Left 0
WINDOW 39 0 0 Left 0
SYMATTR InstName V2
SYMATTR Value 5
SYMBOL res 288 304 R90
WINDOW 0 0 56 VBottom 2
WINDOW 3 32 56 VTop 2
SYMATTR InstName R1
SYMATTR Value 10k
SYMBOL res 368 384 R0
SYMATTR InstName R2
SYMATTR Value 2
SYMBOL res 368 -96 R0
SYMATTR InstName R3
SYMATTR Value 1k
SYMBOL nmos 336 96 R0
SYMATTR InstName M1
SYMBOL res 288 160 R90
WINDOW 0 0 56 VBottom 2
WINDOW 3 32 56 VTop 2
SYMATTR InstName R4
SYMATTR Value 10k
SYMBOL res -112 304 R0
SYMATTR InstName R5
SYMATTR Value 100
SYMBOL res -176 176 R90
WINDOW 0 0 56 VBottom 2
WINDOW 3 32 56 VTop 2
SYMATTR InstName R6
SYMATTR Value 100k
TEXT -464 624 Left 2 !;dc V2 0 5 0.1
TEXT -464 536 Left 2 !.step param R3 list 0R 1R 10R 100R 1K 10k 100k 1000k 10000k
TEXT -466 556 Left 2 !.op
