Version 4
SHEET 1 880 680
WIRE -128 -96 -128 -144
WIRE -32 -96 -32 -144
WIRE 384 -80 384 -128
WIRE -128 0 -128 -16
WIRE -32 0 -32 -16
WIRE 384 96 384 0
WIRE 112 144 112 112
WIRE 80 160 0 160
WIRE 192 176 144 176
WIRE 336 176 272 176
WIRE 80 192 -80 192
WIRE 112 240 112 208
WIRE 0 320 0 160
WIRE 192 320 0 320
WIRE 384 320 384 192
WIRE 384 320 272 320
WIRE 384 400 384 320
WIRE 384 512 384 480
FLAG 112 240 0
FLAG -128 0 0
FLAG -128 -144 Vsupply
FLAG 112 112 Vsupply
FLAG -32 -144 Vcontrol
FLAG -32 0 0
FLAG -80 192 Vcontrol
FLAG 384 -128 Vsupply
FLAG 384 512 0
SYMBOL Opamps\\UniversalOpamp2 112 176 R0
SYMATTR InstName U1
SYMBOL voltage -128 -112 R0
SYMATTR InstName V1
SYMBOL voltage -32 -112 R0
SYMATTR InstName V2
SYMBOL res 288 304 R90
WINDOW 0 0 56 VBottom 2
WINDOW 3 32 56 VTop 2
SYMATTR InstName R1
SYMBOL res 368 384 R0
SYMATTR InstName R2
SYMBOL res 368 -96 R0
SYMATTR InstName R3
SYMBOL nmos 336 96 R0
SYMATTR InstName M1
SYMBOL res 288 160 R90
WINDOW 0 0 56 VBottom 2
WINDOW 3 32 56 VTop 2
SYMATTR InstName R4
